Replication/results/database/Database_Report.txt

==============================================================================================================
0. MODEL, REFERENCE DIRECTIONS AND OPEN POINTS (before any calculation)
==============================================================================================================
Project: IEEE13 Yousaf2022 Replication   Study case: Study with Substation Transformer
Load flow: AC unbalanced, 3-phase (ABC).  Short circuit: complete method (pre-fault load flow), initial symmetrical current Ikss.

Reference direction of the reclosers (+ = forward = away from the grid):
  Device | Relay units in the model                         | Relay terminal | Measured element | Forward =   | Line distance from the grid        
  -------+--------------------------------------------------+----------------+------------------+-------------+------------------------------------
  R1     | R1 Fast, R1 Delayed                              | RG60           | LOHL650-632      | RG60 -> 632 | 0 (relay end) / 2000 (other end)   
  R2     | R2 Fast, R2 Delayed, R2 Rev Fast, R2 Rev Delayed | 671            | LOHL632-671end   | nDL5 -> 671 | 4000 (relay end) / 3667 (other end)
R2 sits at the 671 end of line 632-671. PowerFactory counts current positive from the terminal into the element, i.e. 671 -> 632 for R2, so R2's PowerFactory values are multiplied by -1 to get the forward reference 632 -> 671. R1's values are used as they are.

DG and transformer data as found in the model:
  DG: synchronous, 4.05 MVA / 0.69 kV at node 692 through a 4.16/0.69 kV transformer, uk = 15 % (Dyn5)
  Table I: xd 1.400, xq 1.372, xd' 0.231, xq' 0.800, xd'' 0.118, xq'' 0.118, xl 0.050, rstr 0.0014 pu
Modelling choices - values not fixed by the method, with what the model uses:
  1. Source impedance. Model: External Grid 115 kV, Sk'' = 100000 MVA, behind the 5 MVA 115/4.16 kV substation transformer, uk = 8.06 % (IEEE 13-node benchmark data).
  2. DG operating point for the load flow. Model: P = 3.24 MW, voltage control (constv) at 1.00 pu; Q follows from the load flow.
  3. Relay / CT reference direction: defined above from the use of R2 (forward for faults at 671 and beyond).
  4. Short-circuit method: complete method (pre-fault load flow).
  5. 'Farthest node' of each protection section: taken from the model's line lengths.
  6. Fault location in the upstream section 632-671: the distributed-load lateral 'DL' at the middle of the line.
  7. Regulator taps (fixed, from the model): VregA +10, VregB +8, VregC +11.

==============================================================================================================
1. LOAD FLOW WITHOUT DG  (CASE A - DG DISCONNECTED)
==============================================================================================================
  Device | Current (A) | Sign | Direction | P (kW) | Q (kvar) | I per phase A / B / C (A) | P per phase (kW)        | Voltage at the relay (pu)
  -------+-------------+------+-----------+--------+----------+---------------------------+-------------------------+--------------------------
  R1     | +587.7      | +    | forward   | 3583.0 | 1722.0   | +557.9 / +411.3 / +587.7  | 1247.1 / 985.9 / 1350.1 | 1.0605 / 1.0679 / 1.0665 
  R2     | +470.0      | +    | forward   | 2460.1 | 727.9    | +470.0 / +184.0 / +420.8  | 1036.8 / 467.7 / 955.6  | 0.9877 / 1.0722 / 0.9753 
Current = largest phase current; its sign and the direction follow the total active power in the forward reference. P and Q are positive in the forward direction.

==============================================================================================================
2. LOAD FLOW WITH DG  (CASE B - DG CONNECTED)
==============================================================================================================
  Device | Current (A) | Sign | Direction | P (kW) | Q (kvar) | I per phase A / B / C (A) | P per phase (kW)       | Voltage at the relay (pu)
  -------+-------------+------+-----------+--------+----------+---------------------------+------------------------+--------------------------
  R1     | +284.9      | +    | forward   | 302.3  | 1837.3   | +264.6 / -185.8 / +284.9  | 169.3 / -74.7 / 207.8  | 1.0715 / 1.0710 / 1.0748 
  R2     | -252.2      | -    | reverse   | -755.3 | 1071.1   | -206.3 / -252.2 / -160.2  | -4.7 / -621.2 / -129.4 | 1.0334 / 1.0738 / 1.0094 
Current = largest phase current; its sign and the direction follow the total active power in the forward reference. P and Q are positive in the forward direction.
NOTE: R1 is forward in total, but phase B carries active power in the opposite direction (unbalanced feeder).

==============================================================================================================
LOAD FLOW COMPARISON
==============================================================================================================
  Device | Without DG (A) | With DG (A) | Change in magnitude (A) | Direction without DG | Direction with DG
  -------+----------------+-------------+-------------------------+----------------------+------------------
  R1     | +587.7         | +284.9      | -302.8                  | forward              | forward          
  R2     | +470.0         | -252.2      | -217.8                  | forward              | reverse          
The DG reverses the load current through R2: 2460 kW forward without DG, 755 kW towards 632 with DG.

==============================================================================================================
3. BUS VOLTAGE WITHOUT DG  (phase-to-ground)
==============================================================================================================
  Bus  | Phase | Voltage (kV) | Voltage (pu) | Angle (deg)
  -----+-------+--------------+--------------+------------
  650  | A     | 2.3973       | 0.9981       | -33.34     
  650  | B     | 2.4426       | 1.0170       | -152.65    
  650  | C     | 2.3967       | 0.9979       | 86.35      
  RG60 | A     | 2.5471       | 1.0605       | -33.34     
  RG60 | B     | 2.5648       | 1.0679       | -152.65    
  RG60 | C     | 2.5615       | 1.0665       | 86.35      
  632  | A     | 2.4466       | 1.0187       | -35.92     
  632  | B     | 2.5497       | 1.0616       | -154.32    
  632  | C     | 2.4358       | 1.0142       | 84.22      
  633  | A     | 2.4396       | 1.0158       | -35.93     
  633  | B     | 2.5429       | 1.0588       | -154.38    
  633  | C     | 2.4315       | 1.0124       | 84.18      
  634  | A     | 0.2749       | 0.9918       | -36.60     
  634  | B     | 0.2884       | 1.0406       | -154.82    
  634  | C     | 0.2754       | 0.9936       | 83.69      
  645  | B     | 2.5314       | 1.0540       | -154.44    
  645  | C     | 2.4273       | 1.0106       | 84.30      
  646  | B     | 2.5272       | 1.0522       | -154.52    
  646  | C     | 2.4223       | 1.0085       | 84.34      
  671  | A     | 2.3722       | 0.9877       | -38.70     
  671  | B     | 2.5752       | 1.0722       | -154.95    
  671  | C     | 2.3423       | 0.9753       | 82.38      
  692  | A     | 2.3722       | 0.9877       | -38.70     
  692  | B     | 2.5752       | 1.0722       | -154.95    
  692  | C     | 2.3423       | 0.9753       | 82.38      
  675  | A     | 2.3558       | 0.9809       | -39.06     
  675  | B     | 2.5859       | 1.0767       | -155.12    
  675  | C     | 2.3367       | 0.9729       | 82.49      
  680  | A     | 2.3722       | 0.9877       | -38.70     
  680  | B     | 2.5752       | 1.0722       | -154.95    
  680  | C     | 2.3423       | 0.9753       | 82.38      
  684  | A     | 2.3679       | 0.9859       | -38.72     
  684  | C     | 2.3373       | 0.9732       | 82.27      
  652  | A     | 2.3564       | 0.9811       | -38.64     
  611  | C     | 2.3327       | 0.9712       | 82.13      
  DL   | A     | 2.4084       | 1.0028       | -37.29     
  DL   | B     | 2.5617       | 1.0666       | -154.65    
  DL   | C     | 2.3872       | 0.9939       | 83.28      
  DG   | A     | 0.4025       | 1.0103       | 174.64     
  DG   | B     | 0.4133       | 1.0376       | 52.23      
  DG   | C     | 0.3931       | 0.9868       | -67.95     

==============================================================================================================
4. BUS VOLTAGE WITH DG  (phase-to-ground)
==============================================================================================================
  Bus  | Phase | Voltage (kV) | Voltage (pu) | Angle (deg)
  -----+-------+--------------+--------------+------------
  650  | A     | 2.4220       | 1.0084       | -30.25     
  650  | B     | 2.4498       | 1.0200       | -149.62    
  650  | C     | 2.4155       | 1.0057       | 89.66      
  RG60 | A     | 2.5734       | 1.0715       | -30.25     
  RG60 | B     | 2.5723       | 1.0710       | -149.62    
  RG60 | C     | 2.5815       | 1.0748       | 89.66      
  632  | A     | 2.5176       | 1.0482       | -30.64     
  632  | B     | 2.5554       | 1.0640       | -149.06    
  632  | C     | 2.4886       | 1.0361       | 89.95      
  633  | A     | 2.5108       | 1.0454       | -30.64     
  633  | B     | 2.5485       | 1.0611       | -149.13    
  633  | C     | 2.4845       | 1.0344       | 89.91      
  634  | A     | 0.2833       | 1.0221       | -31.28     
  634  | B     | 0.2890       | 1.0430       | -149.57    
  634  | C     | 0.2816       | 1.0161       | 89.45      
  645  | B     | 2.5371       | 1.0563       | -149.19    
  645  | C     | 2.4799       | 1.0325       | 90.03      
  646  | B     | 2.5328       | 1.0546       | -149.27    
  646  | C     | 2.4749       | 1.0304       | 90.07      
  671  | A     | 2.4820       | 1.0334       | -31.07     
  671  | B     | 2.5791       | 1.0738       | -147.47    
  671  | C     | 2.4244       | 1.0094       | 90.75      
  692  | A     | 2.4820       | 1.0334       | -31.07     
  692  | B     | 2.5791       | 1.0738       | -147.47    
  692  | C     | 2.4244       | 1.0094       | 90.75      
  675  | A     | 2.4669       | 1.0271       | -31.41     
  675  | B     | 2.5893       | 1.0781       | -147.63    
  675  | C     | 2.4191       | 1.0072       | 90.83      
  680  | A     | 2.4820       | 1.0334       | -31.07     
  680  | B     | 2.5791       | 1.0738       | -147.47    
  680  | C     | 2.4244       | 1.0094       | 90.75      
  684  | A     | 2.4774       | 1.0315       | -31.10     
  684  | C     | 2.4195       | 1.0074       | 90.64      
  652  | A     | 2.4654       | 1.0265       | -31.01     
  611  | C     | 2.4150       | 1.0055       | 90.50      
  DL   | A     | 2.4995       | 1.0407       | -30.86     
  DL   | B     | 2.5663       | 1.0685       | -148.28    
  DL   | C     | 2.4549       | 1.0221       | 90.31      
  DG   | A     | 0.4104       | 1.0302       | -172.43    
  DG   | B     | 0.4139       | 1.0390       | 67.08      
  DG   | C     | 0.4091       | 1.0269       | -53.10     

==============================================================================================================
VOLTAGE COMPARISON
==============================================================================================================
  Bus  | Phase | V without DG (kV) | V with DG (kV) | dV (kV) | V without DG (pu) | V with DG (pu)
  -----+-------+-------------------+----------------+---------+-------------------+---------------
  650  | A     | 2.3973            | 2.4220         | +0.0248 | 0.9981            | 1.0084        
  650  | B     | 2.4426            | 2.4498         | +0.0072 | 1.0170            | 1.0200        
  650  | C     | 2.3967            | 2.4155         | +0.0187 | 0.9979            | 1.0057        
  RG60 | A     | 2.5471            | 2.5734         | +0.0263 | 1.0605            | 1.0715        
  RG60 | B     | 2.5648            | 2.5723         | +0.0075 | 1.0679            | 1.0710        
  RG60 | C     | 2.5615            | 2.5815         | +0.0200 | 1.0665            | 1.0748        
  632  | A     | 2.4466            | 2.5176         | +0.0709 | 1.0187            | 1.0482        
  632  | B     | 2.5497            | 2.5554         | +0.0057 | 1.0616            | 1.0640        
  632  | C     | 2.4358            | 2.4886         | +0.0527 | 1.0142            | 1.0361        
  633  | A     | 2.4396            | 2.5108         | +0.0711 | 1.0158            | 1.0454        
  633  | B     | 2.5429            | 2.5485         | +0.0056 | 1.0588            | 1.0611        
  633  | C     | 2.4315            | 2.4845         | +0.0529 | 1.0124            | 1.0344        
  634  | A     | 0.2749            | 0.2833         | +0.0084 | 0.9918            | 1.0221        
  634  | B     | 0.2884            | 0.2890         | +0.0007 | 1.0406            | 1.0430        
  634  | C     | 0.2754            | 0.2816         | +0.0062 | 0.9936            | 1.0161        
  645  | B     | 2.5314            | 2.5371         | +0.0057 | 1.0540            | 1.0563        
  645  | C     | 2.4273            | 2.4799         | +0.0526 | 1.0106            | 1.0325        
  646  | B     | 2.5272            | 2.5328         | +0.0057 | 1.0522            | 1.0546        
  646  | C     | 2.4223            | 2.4749         | +0.0526 | 1.0085            | 1.0304        
  671  | A     | 2.3722            | 2.4820         | +0.1098 | 0.9877            | 1.0334        
  671  | B     | 2.5752            | 2.5791         | +0.0039 | 1.0722            | 1.0738        
  671  | C     | 2.3423            | 2.4244         | +0.0821 | 0.9753            | 1.0094        
  692  | A     | 2.3722            | 2.4820         | +0.1098 | 0.9877            | 1.0334        
  692  | B     | 2.5752            | 2.5791         | +0.0039 | 1.0722            | 1.0738        
  692  | C     | 2.3423            | 2.4244         | +0.0821 | 0.9753            | 1.0094        
  675  | A     | 2.3558            | 2.4669         | +0.1111 | 0.9809            | 1.0271        
  675  | B     | 2.5859            | 2.5893         | +0.0034 | 1.0767            | 1.0781        
  675  | C     | 2.3367            | 2.4191         | +0.0825 | 0.9729            | 1.0072        
  680  | A     | 2.3722            | 2.4820         | +0.1098 | 0.9877            | 1.0334        
  680  | B     | 2.5752            | 2.5791         | +0.0039 | 1.0722            | 1.0738        
  680  | C     | 2.3423            | 2.4244         | +0.0821 | 0.9753            | 1.0094        
  684  | A     | 2.3679            | 2.4774         | +0.1095 | 0.9859            | 1.0315        
  684  | C     | 2.3373            | 2.4195         | +0.0822 | 0.9732            | 1.0074        
  652  | A     | 2.3564            | 2.4654         | +0.1090 | 0.9811            | 1.0265        
  611  | C     | 2.3327            | 2.4150         | +0.0823 | 0.9712            | 1.0055        
  DL   | A     | 2.4084            | 2.4995         | +0.0911 | 1.0028            | 1.0407        
  DL   | B     | 2.5617            | 2.5663         | +0.0046 | 1.0666            | 1.0685        
  DL   | C     | 2.3872            | 2.4549         | +0.0677 | 0.9939            | 1.0221        
  DG   | A     | 0.4025            | 0.4104         | +0.0079 | 1.0103            | 1.0302        
  DG   | B     | 0.4133            | 0.4139         | +0.0006 | 1.0376            | 1.0390        
  DG   | C     | 0.3931            | 0.4091         | +0.0160 | 0.9868            | 1.0269        
Bus DG is the 0.69 kV generator terminal, 634 the 0.48 kV side of XFM-1; all other buses are 4.16 kV. Without DG the generator terminal is energised through its transformer, at no load.

==============================================================================================================
PHASES PRESENT AT EACH BUS (from the model's load flow) AND FAULT TYPES THAT DO NOT EXIST THERE
==============================================================================================================
  Bus | Phases present | Fault types not applicable
  ----+----------------+---------------------------
  632 | ABC            | -                         
  633 | ABC            | -                         
  634 | ABC            | -                         
  645 | BC             | LLL                       
  646 | BC             | LLL                       
  671 | ABC            | -                         
  692 | ABC            | -                         
  675 | ABC            | -                         
  680 | ABC            | -                         
  684 | AC             | LLL                       
  652 | A              | LLL, LLG, LL              
  611 | C              | LLL, LLG, LL              
  DL  | ABC            | -                         

==============================================================================================================
5. SHORT CIRCUIT WITHOUT DG  (CASE A - DG DISCONNECTED) - every fault, current through R1 and R2
==============================================================================================================
  Faulted bus | Fault type | Phases | Zf (ohm) | Fault current (A) | R1 current (A) | R1 sign | R1 direction | R2 current (A) | R2 sign | R2 direction
  ------------+------------+--------+----------+-------------------+----------------+---------+--------------+----------------+---------+-------------
  632         | LLL        | ABC    | 0        | 4735.2            | 4734.6         | +       | forward      | 0.5            | 0       | no current  
  632         | LLG        | AB     | 0        | 4422.7            | 4524.0         | +       | forward      | 396.0          | +       | forward     
  632         | LLG        | BC     | 0        | 4198.1            | 4268.9         | +       | forward      | 485.6          | +       | forward     
  632         | LLG        | AC     | 0        | 4186.9            | 4296.9         | +       | forward      | 160.5          | +       | forward     
  632         | LL         | AB     | 0        | 4148.7            | 4382.9         | +       | forward      | 409.2          | +       | forward     
  632         | LL         | BC     | 0        | 3903.1            | 4045.4         | +       | forward      | 479.3          | +       | forward     
  632         | LL         | AC     | 0        | 3947.5            | 4173.2         | +       | forward      | 218.4          | +       | forward     
  632         | LG         | A      | 0        | 3462.1            | 3555.0         | +       | forward      | 387.5          | +       | forward     
  632         | LG         | B      | 0        | 3492.7            | 3552.7         | +       | forward      | 475.3          | +       | forward     
  632         | LG         | C      | 0        | 3398.0            | 3505.7         | +       | forward      | 477.5          | +       | forward     
  632         | LG         | A      | 3        | 742.9             | 1237.1         | +       | forward      | 444.0          | +       | forward     
  632         | LG         | B      | 3        | 777.3             | 1149.9         | +       | forward      | 465.0          | +       | forward     
  632         | LG         | C      | 3        | 739.2             | 1265.8         | +       | forward      | 467.4          | +       | forward     
  633         | LLL        | ABC    | 0        | 4102.5            | 4162.2         | +       | forward      | 65.9           | +       | forward     
  633         | LLG        | AB     | 0        | 3805.5            | 3958.2         | +       | forward      | 399.4          | +       | forward     
  633         | LLG        | BC     | 0        | 3640.8            | 3742.7         | +       | forward      | 480.2          | +       | forward     
  633         | LLG        | AC     | 0        | 3640.8            | 3805.8         | +       | forward      | 162.3          | +       | forward     
  633         | LL         | AB     | 0        | 3562.9            | 3838.0         | +       | forward      | 411.9          | +       | forward     
  633         | LL         | BC     | 0        | 3361.2            | 3536.6         | +       | forward      | 475.8          | +       | forward     
  633         | LL         | AC     | 0        | 3440.0            | 3711.1         | +       | forward      | 206.5          | +       | forward     
  633         | LG         | A      | 0        | 3023.1            | 3162.2         | +       | forward      | 392.3          | +       | forward     
  633         | LG         | B      | 0        | 3055.0            | 3142.9         | +       | forward      | 473.1          | +       | forward     
  633         | LG         | C      | 0        | 2960.8            | 3116.8         | +       | forward      | 475.0          | +       | forward     
  633         | LG         | A      | 3        | 721.2             | 1214.8         | +       | forward      | 443.2          | +       | forward     
  633         | LG         | B      | 3        | 754.4             | 1125.1         | +       | forward      | 465.3          | +       | forward     
  633         | LG         | C      | 3        | 718.3             | 1244.4         | +       | forward      | 467.4          | +       | forward     
  634         | LLL        | ABC    | 0        | 15671.0           | 2034.2         | +       | forward      | 298.5          | +       | forward     
  634         | LLG        | AB     | 0        | 15046.1           | 1983.1         | +       | forward      | 410.0          | +       | forward     
  634         | LLG        | BC     | 0        | 14749.4           | 1894.6         | +       | forward      | 472.2          | +       | forward     
  634         | LLG        | AC     | 0        | 14601.8           | 1969.2         | +       | forward      | 302.8          | +       | forward     
  634         | LL         | AB     | 0        | 13479.0           | 1955.5         | +       | forward      | 417.6          | +       | forward     
  634         | LL         | BC     | 0        | 13250.0           | 1802.8         | +       | forward      | 470.7          | +       | forward     
  634         | LL         | AC     | 0        | 13195.9           | 1941.1         | +       | forward      | 325.8          | +       | forward     
  634         | LG         | A      | 0        | 13490.0           | 1822.7         | +       | forward      | 406.5          | +       | forward     
  634         | LG         | B      | 0        | 13811.9           | 1766.2         | +       | forward      | 470.2          | +       | forward     
  634         | LG         | C      | 0        | 13296.8           | 1825.5         | +       | forward      | 471.9          | +       | forward     
  634         | LG         | A      | 3        | 91.3              | 587.7          | +       | forward      | 469.8          | +       | forward     
  634         | LG         | B      | 3        | 95.8              | 587.7          | +       | forward      | 469.9          | +       | forward     
  634         | LG         | C      | 3        | 91.5              | 596.7          | +       | forward      | 470.0          | +       | forward     
  645         | LLG        | BC     | 0        | 3418.2            | 3527.9         | +       | forward      | 477.6          | +       | forward     
  645         | LL         | BC     | 0        | 3249.9            | 3423.2         | +       | forward      | 473.2          | +       | forward     
  645         | LG         | C      | 0        | 2702.2            | 2895.4         | +       | forward      | 474.9          | +       | forward     
  645         | LG         | B      | 0        | 2802.9            | 2906.5         | +       | forward      | 472.5          | +       | forward     
  645         | LG         | C      | 3        | 705.5             | 1234.4         | +       | forward      | 467.6          | +       | forward     
  645         | LG         | B      | 3        | 739.6             | 1109.8         | +       | forward      | 465.4          | +       | forward     
  646         | LLG        | BC     | 0        | 3112.2            | 3191.7         | +       | forward      | 474.8          | +       | forward     
  646         | LL         | BC     | 0        | 2936.5            | 3130.5         | +       | forward      | 471.0          | +       | forward     
  646         | LG         | C      | 0        | 2402.4            | 2632.2         | +       | forward      | 474.0          | +       | forward     
  646         | LG         | B      | 0        | 2496.2            | 2625.2         | +       | forward      | 471.5          | +       | forward     
  646         | LG         | C      | 3        | 686.2             | 1216.4         | +       | forward      | 467.8          | +       | forward     
  646         | LG         | B      | 3        | 719.5             | 1090.1         | +       | forward      | 465.6          | +       | forward     
  671         | LLL        | ABC    | 0        | 3390.1            | 3412.7         | +       | forward      | 3390.1         | +       | forward     
  671         | LLG        | AB     | 0        | 3179.1            | 3296.9         | +       | forward      | 3268.2         | +       | forward     
  671         | LLG        | BC     | 0        | 2922.3            | 3045.8         | +       | forward      | 2987.2         | +       | forward     
  671         | LLG        | AC     | 0        | 2927.1            | 3067.9         | +       | forward      | 2988.7         | +       | forward     
  671         | LL         | AB     | 0        | 2961.5            | 3211.7         | +       | forward      | 3165.3         | +       | forward     
  671         | LL         | BC     | 0        | 2724.6            | 2911.3         | +       | forward      | 2809.6         | +       | forward     
  671         | LL         | AC     | 0        | 2781.5            | 3030.3         | +       | forward      | 2927.6         | +       | forward     
  671         | LG         | A      | 0        | 2280.2            | 2413.9         | +       | forward      | 2395.2         | +       | forward     
  671         | LG         | B      | 0        | 2302.8            | 2433.4         | +       | forward      | 2381.8         | +       | forward     
  671         | LG         | C      | 0        | 2203.8            | 2371.3         | +       | forward      | 2297.5         | +       | forward     
  671         | LG         | A      | 3        | 667.9             | 1151.6         | +       | forward      | 1078.8         | +       | forward     
  671         | LG         | B      | 3        | 728.5             | 1101.6         | +       | forward      | 907.4          | +       | forward     
  671         | LG         | C      | 3        | 658.8             | 1176.9         | +       | forward      | 1032.2         | +       | forward     
  692         | LLL        | ABC    | 0        | 3390.1            | 3412.7         | +       | forward      | 3390.1         | +       | forward     
  692         | LLG        | AB     | 0        | 3179.1            | 3296.9         | +       | forward      | 3268.2         | +       | forward     
  692         | LLG        | BC     | 0        | 2922.3            | 3045.8         | +       | forward      | 2987.2         | +       | forward     
  692         | LLG        | AC     | 0        | 2927.1            | 3067.9         | +       | forward      | 2988.7         | +       | forward     
  692         | LL         | AB     | 0        | 2961.5            | 3211.7         | +       | forward      | 3165.3         | +       | forward     
  692         | LL         | BC     | 0        | 2724.6            | 2911.3         | +       | forward      | 2809.6         | +       | forward     
  692         | LL         | AC     | 0        | 2781.5            | 3030.3         | +       | forward      | 2927.6         | +       | forward     
  692         | LG         | A      | 0        | 2280.2            | 2413.9         | +       | forward      | 2395.2         | +       | forward     
  692         | LG         | B      | 0        | 2302.8            | 2433.4         | +       | forward      | 2381.8         | +       | forward     
  692         | LG         | C      | 0        | 2203.8            | 2371.3         | +       | forward      | 2297.5         | +       | forward     
  692         | LG         | A      | 3        | 667.9             | 1151.6         | +       | forward      | 1078.8         | +       | forward     
  692         | LG         | B      | 3        | 728.5             | 1101.6         | +       | forward      | 907.4          | +       | forward     
  692         | LG         | C      | 3        | 658.8             | 1176.9         | +       | forward      | 1032.2         | +       | forward     
  675         | LLL        | ABC    | 0        | 3151.2            | 3202.2         | +       | forward      | 3174.3         | +       | forward     
  675         | LLG        | AB     | 0        | 2990.2            | 3126.3         | +       | forward      | 3093.2         | +       | forward     
  675         | LLG        | BC     | 0        | 2784.4            | 2925.8         | +       | forward      | 2856.5         | +       | forward     
  675         | LLG        | AC     | 0        | 2747.1            | 2912.4         | +       | forward      | 2825.9         | +       | forward     
  675         | LL         | AB     | 0        | 2769.3            | 3034.5         | +       | forward      | 2984.8         | +       | forward     
  675         | LL         | BC     | 0        | 2568.2            | 2771.6         | +       | forward      | 2661.3         | +       | forward     
  675         | LL         | AC     | 0        | 2587.6            | 2857.4         | +       | forward      | 2749.2         | +       | forward     
  675         | LG         | A      | 0        | 2117.3            | 2274.5         | +       | forward      | 2249.2         | +       | forward     
  675         | LG         | B      | 0        | 2160.3            | 2316.0         | +       | forward      | 2249.0         | +       | forward     
  675         | LG         | C      | 0        | 2052.0            | 2249.5         | +       | forward      | 2165.4         | +       | forward     
  675         | LG         | A      | 3        | 646.2             | 1128.0         | +       | forward      | 1054.5         | +       | forward     
  675         | LG         | B      | 3        | 711.3             | 1085.4         | +       | forward      | 890.3          | +       | forward     
  675         | LG         | C      | 3        | 640.4             | 1157.6         | +       | forward      | 1012.0         | +       | forward     
  680         | LLL        | ABC    | 0        | 2929.6            | 3005.5         | +       | forward      | 2975.6         | +       | forward     
  680         | LLG        | AB     | 0        | 2688.3            | 2872.2         | +       | forward      | 2832.9         | +       | forward     
  680         | LLG        | BC     | 0        | 2467.4            | 2621.7         | +       | forward      | 2539.2         | +       | forward     
  680         | LLG        | AC     | 0        | 2493.7            | 2667.8         | +       | forward      | 2571.0         | +       | forward     
  680         | LL         | AB     | 0        | 2574.5            | 2861.6         | +       | forward      | 2809.9         | +       | forward     
  680         | LL         | BC     | 0        | 2342.8            | 2553.6         | +       | forward      | 2436.2         | +       | forward     
  680         | LL         | AC     | 0        | 2394.5            | 2683.5         | +       | forward      | 2570.6         | +       | forward     
  680         | LG         | A      | 0        | 1820.7            | 1997.5         | +       | forward      | 1968.3         | +       | forward     
  680         | LG         | B      | 0        | 1861.1            | 2011.2         | +       | forward      | 1938.5         | +       | forward     
  680         | LG         | C      | 0        | 1766.5            | 1973.6         | +       | forward      | 1882.9         | +       | forward     
  680         | LG         | A      | 3        | 644.5             | 1129.9         | +       | forward      | 1056.4         | +       | forward     
  680         | LG         | B      | 3        | 701.5             | 1074.4         | +       | forward      | 878.5          | +       | forward     
  680         | LG         | C      | 3        | 635.5             | 1154.7         | +       | forward      | 1007.6         | +       | forward     
  684         | LLG        | AC     | 0        | 2655.3            | 2835.5         | +       | forward      | 2744.5         | +       | forward     
  684         | LL         | AC     | 0        | 2540.4            | 2821.0         | +       | forward      | 2711.3         | +       | forward     
  684         | LG         | A      | 0        | 2076.2            | 2241.4         | +       | forward      | 2215.9         | +       | forward     
  684         | LG         | C      | 0        | 2008.8            | 2208.4         | +       | forward      | 2124.0         | +       | forward     
  684         | LG         | A      | 3        | 650.1             | 1134.1         | +       | forward      | 1060.8         | +       | forward     
  684         | LG         | C      | 3        | 640.3             | 1158.9         | +       | forward      | 1013.0         | +       | forward     
  652         | LG         | A      | 0        | 1873.7            | 2093.8         | +       | forward      | 2058.7         | +       | forward     
  652         | LG         | A      | 3        | 617.2             | 1102.4         | +       | forward      | 1028.3         | +       | forward     
  611         | LG         | C      | 0        | 1857.2            | 2084.5         | +       | forward      | 1991.4         | +       | forward     
  611         | LG         | C      | 3        | 622.7             | 1141.7         | +       | forward      | 994.8          | +       | forward     
  DL          | LLL        | ABC    | 0        | 3946.4            | 3959.0         | +       | forward      | 1.4            | +       | forward     
  DL          | LLG        | AB     | 0        | 3649.9            | 3769.7         | +       | forward      | 403.2          | +       | forward     
  DL          | LLG        | BC     | 0        | 3398.3            | 3503.5         | +       | forward      | 496.5          | +       | forward     
  DL          | LLG        | AC     | 0        | 3412.7            | 3538.2         | +       | forward      | 166.0          | +       | forward     
  DL          | LL         | AB     | 0        | 3452.5            | 3696.0         | +       | forward      | 408.4          | +       | forward     
  DL          | LL         | BC     | 0        | 3201.8            | 3369.8         | +       | forward      | 478.1          | +       | forward     
  DL          | LL         | AC     | 0        | 3258.6            | 3496.4         | +       | forward      | 219.0          | +       | forward     
  DL          | LG         | A      | 0        | 2666.5            | 2785.8         | +       | forward      | 393.1          | +       | forward     
  DL          | LG         | B      | 0        | 2695.1            | 2796.5         | +       | forward      | 481.5          | +       | forward     
  DL          | LG         | C      | 0        | 2602.0            | 2744.6         | +       | forward      | 485.8          | +       | forward     
  DL          | LG         | A      | 3        | 703.9             | 1193.5         | +       | forward      | 433.2          | +       | forward     
  DL          | LG         | B      | 3        | 752.1             | 1125.1         | +       | forward      | 461.2          | +       | forward     
  DL          | LG         | C      | 3        | 697.1             | 1219.5         | +       | forward      | 471.1          | +       | forward     
Currents are the largest phase value. 'no current' = below 1 A (no source behind the recloser for this fault).

If,max at each fault location, without DG (bolted, largest of the applicable fault types):
  Bus | If,max (A) | Fault type | Faulted phases | R1 (A)  | R2 (A)  | Comment                                                                                         
  ----+------------+------------+----------------+---------+---------+-------------------------------------------------------------------------------------------------
  632 | 4735.2     | LLL        | ABC            | +4734.6 | 0.0     |                                                                                                 
  633 | 4102.5     | LLL        | ABC            | +4162.2 | +65.9   |                                                                                                 
  634 | 15671.0    | LLL        | ABC            | +2034.2 | +298.5  |                                                                                                 
  645 | 3418.2     | LLG        | BC             | +3527.9 | +477.6  | 3-phase fault not applicable at this location; maximum fault current is obtained from LLG fault.
  646 | 3112.2     | LLG        | BC             | +3191.7 | +474.8  | 3-phase fault not applicable at this location; maximum fault current is obtained from LLG fault.
  671 | 3390.1     | LLL        | ABC            | +3412.7 | +3390.1 |                                                                                                 
  692 | 3390.1     | LLL        | ABC            | +3412.7 | +3390.1 |                                                                                                 
  675 | 3151.2     | LLL        | ABC            | +3202.2 | +3174.3 |                                                                                                 
  680 | 2929.6     | LLL        | ABC            | +3005.5 | +2975.6 |                                                                                                 
  684 | 2655.3     | LLG        | AC             | +2835.5 | +2744.5 | 3-phase fault not applicable at this location; maximum fault current is obtained from LLG fault.
  652 | 1873.7     | LG         | A              | +2093.8 | +2058.7 | 3-phase fault not applicable at this location; maximum fault current is obtained from LG fault. 
  611 | 1857.2     | LG         | C              | +2084.5 | +1991.4 | 3-phase fault not applicable at this location; maximum fault current is obtained from LG fault. 
  DL  | 3946.4     | LLL        | ABC            | +3959.0 | +1.4    |                                                                                                 

If,min of each protection section, without DG (LG through 3 ohm at the farthest node):
  Protection section | Farthest node | Line length to it | Fault type | Faulted phase | Zf (ohm) | Fault current (A) | If,min through the section (A) | Lowest LG-3-ohm current in the section
  -------------------+---------------+-------------------+------------+---------------+----------+-------------------+--------------------------------+---------------------------------------
  RG60-632           | 652           | 5100              | LG         | A             | 3        | 617.2             | 1102.4                         | 1074.4 A (fault at 680, phase B)      
  632-633            | 633           | 500               | LG         | C             | 3        | 718.3             | 760.2                          | 760.2 A (fault at 633, phase C)       
  632-645            | 646           | 800               | LG         | C             | 3        | 686.2             | 728.4                          | 728.4 A (fault at 646, phase C)       
  632-671            | 652           | 1100              | LG         | A             | 3        | 617.2             | 1028.3                         | 878.5 A (fault at 680, phase B)       
  XFM1-HV-side       | 634           | 0                 | LG         | B             | 3        | 95.8              | 81.0                           | 81.0 A (fault at 634, phase B)        
  XFM1-LV-side       | 634           | 0                 | LG         | B             | 3        | 95.8              | 706.0                          | 706.0 A (fault at 634, phase B)       
  645-646            | 646           | 300               | LG         | C             | 3        | 686.2             | 728.4                          | 728.4 A (fault at 646, phase C)       
  671-692            | 675           | 500               | LG         | B             | 3        | 711.3             | 735.0                          | 735.0 A (fault at 675, phase B)       
  671-684            | 652           | 1100              | LG         | A             | 3        | 617.2             | 658.9                          | 658.9 A (fault at 652, phase A)       
  671-680            | 680           | 1000              | LG         | C             | 3        | 635.5             | 635.5                          | 635.5 A (fault at 680, phase C)       
  692-675            | 675           | 500               | LG         | B             | 3        | 711.3             | 735.0                          | 735.0 A (fault at 675, phase B)       
  684-611            | 611           | 300               | LG         | C             | 3        | 622.7             | 679.4                          | 679.4 A (fault at 611, phase C)       
  684-652            | 652           | 800               | LG         | A             | 3        | 617.2             | 658.9                          | 658.9 A (fault at 652, phase A)       
Line lengths are in the model's length unit (feet). At a node with more than one phase the phase with the smaller section current is given. A 3-ohm fault draws about as much as the feeder load, so the current through a section (complete method) contains the load current as well as the fault current.

==============================================================================================================
6. SHORT CIRCUIT WITH DG  (CASE B - DG CONNECTED) - every fault, current through R1 and R2
==============================================================================================================
  Faulted bus | Fault type | Phases | Zf (ohm) | Fault current (A) | R1 current (A) | R1 sign | R1 direction | R2 current (A) | R2 sign | R2 direction
  ------------+------------+--------+----------+-------------------+----------------+---------+--------------+----------------+---------+-------------
  632         | LLL        | ABC    | 0        | 6525.6            | 4733.5         | +       | forward      | 1813.4         | -       | reverse     
  632         | LLG        | AB     | 0        | 5931.9            | 4436.3         | +       | forward      | 1537.1         | -       | reverse     
  632         | LLG        | BC     | 0        | 5641.8            | 4155.3         | +       | forward      | 1546.5         | -       | reverse     
  632         | LLG        | AC     | 0        | 5660.7            | 4222.4         | +       | forward      | 1536.5         | -       | reverse     
  632         | LL         | AB     | 0        | 5562.5            | 4194.3         | +       | forward      | 1404.4         | -       | reverse     
  632         | LL         | BC     | 0        | 5257.6            | 3863.3         | +       | forward      | 1490.5         | -       | reverse     
  632         | LL         | AC     | 0        | 5332.7            | 3987.5         | +       | forward      | 1435.5         | -       | reverse     
  632         | LG         | A      | 0        | 4011.4            | 3376.4         | +       | forward      | 652.0          | -       | reverse     
  632         | LG         | B      | 0        | 4025.9            | 3339.2         | +       | forward      | 721.4          | -       | reverse     
  632         | LG         | C      | 0        | 3942.2            | 3338.9         | +       | forward      | 666.9          | -       | reverse     
  632         | LG         | A      | 3        | 778.5             | 766.6          | +       | forward      | 258.8          | -       | reverse     
  632         | LG         | B      | 3        | 792.9             | 660.4          | +       | forward      | 376.8          | -       | reverse     
  632         | LG         | C      | 3        | 769.7             | 778.9          | +       | forward      | 325.5          | -       | reverse     
  633         | LLL        | ABC    | 0        | 5425.8            | 3970.1         | +       | forward      | 1499.7         | -       | reverse     
  633         | LLG        | AB     | 0        | 4888.1            | 3683.3         | +       | forward      | 1250.1         | -       | reverse     
  633         | LLG        | BC     | 0        | 4668.9            | 3451.4         | +       | forward      | 1308.0         | -       | reverse     
  633         | LLG        | AC     | 0        | 4730.8            | 3584.5         | +       | forward      | 1284.2         | -       | reverse     
  633         | LL         | AB     | 0        | 4585.0            | 3478.9         | +       | forward      | 1144.2         | -       | reverse     
  633         | LL         | BC     | 0        | 4340.6            | 3235.2         | +       | forward      | 1263.5         | -       | reverse     
  633         | LL         | AC     | 0        | 4484.6            | 3378.1         | +       | forward      | 1205.6         | -       | reverse     
  633         | LG         | A      | 0        | 3452.1            | 2928.6         | +       | forward      | 543.7          | -       | reverse     
  633         | LG         | B      | 0        | 3458.1            | 2874.4         | +       | forward      | 643.6          | -       | reverse     
  633         | LG         | C      | 0        | 3380.5            | 2892.0         | +       | forward      | 564.2          | -       | reverse     
  633         | LG         | A      | 3        | 755.7             | 750.6          | +       | forward      | 254.1          | -       | reverse     
  633         | LG         | B      | 3        | 769.5             | 643.9          | +       | forward      | 371.6          | -       | reverse     
  633         | LG         | C      | 3        | 747.9             | 764.6          | +       | forward      | 323.5          | -       | reverse     
  634         | LLL        | ABC    | 0        | 17608.2           | 1610.7         | +       | forward      | 618.5          | -       | reverse     
  634         | LLG        | AB     | 0        | 16533.1           | 1557.5         | +       | forward      | 436.5          | -       | reverse     
  634         | LLG        | BC     | 0        | 16326.8           | 1583.6         | +       | forward      | 613.0          | -       | reverse     
  634         | LLG        | AC     | 0        | 16340.7           | 1610.8         | +       | forward      | 471.3          | -       | reverse     
  634         | LL         | AB     | 0        | 15065.0           | 1417.9         | +       | forward      | 398.8          | -       | reverse     
  634         | LL         | BC     | 0        | 14839.3           | 1421.9         | +       | forward      | 604.4          | -       | reverse     
  634         | LL         | AC     | 0        | 14949.2           | 1428.6         | +       | forward      | 449.9          | -       | reverse     
  634         | LG         | A      | 0        | 14609.2           | 1531.5         | +       | forward      | 203.7          | -       | reverse     
  634         | LG         | B      | 0        | 14711.2           | 1464.0         | +       | forward      | 393.6          | -       | reverse     
  634         | LG         | C      | 0        | 14358.8           | 1535.2         | +       | forward      | 380.0          | -       | reverse     
  634         | LG         | A      | 3        | 94.2              | 285.1          | +       | forward      | 252.3          | +       | forward     
  634         | LG         | B      | 3        | 96.1              | 284.0          | +       | forward      | 254.0          | +       | forward     
  634         | LG         | C      | 3        | 93.6              | 287.9          | +       | forward      | 253.2          | +       | forward     
  645         | LLG        | BC     | 0        | 4341.3            | 3329.9         | +       | forward      | 1262.2         | -       | reverse     
  645         | LL         | BC     | 0        | 4167.2            | 3124.0         | +       | forward      | 1231.8         | -       | reverse     
  645         | LG         | C      | 0        | 3055.3            | 2647.7         | +       | forward      | 504.0          | -       | reverse     
  645         | LG         | B      | 0        | 3138.4            | 2619.6         | +       | forward      | 595.3          | -       | reverse     
  645         | LG         | C      | 3        | 734.5             | 758.9          | +       | forward      | 322.1          | -       | reverse     
  645         | LG         | B      | 3        | 754.3             | 634.5          | +       | forward      | 367.8          | -       | reverse     
  646         | LLG        | BC     | 0        | 3853.6            | 3000.3         | +       | forward      | 1135.4         | -       | reverse     
  646         | LL         | BC     | 0        | 3671.9            | 2784.8         | +       | forward      | 1114.0         | -       | reverse     
  646         | LG         | C      | 0        | 2685.6            | 2359.1         | +       | forward      | 468.8          | -       | reverse     
  646         | LG         | B      | 0        | 2759.7            | 2318.4         | +       | forward      | 543.7          | -       | reverse     
  646         | LG         | C      | 3        | 714.3             | 747.2          | +       | forward      | 320.1          | -       | reverse     
  646         | LG         | B      | 3        | 733.8             | 622.5          | +       | forward      | 363.1          | -       | reverse     
  671         | LLL        | ABC    | 0        | 5563.7            | 3412.3         | +       | forward      | 3391.0         | +       | forward     
  671         | LLG        | AB     | 0        | 4963.6            | 3202.6         | +       | forward      | 3175.0         | +       | forward     
  671         | LLG        | BC     | 0        | 4650.5            | 2918.2         | +       | forward      | 2857.3         | +       | forward     
  671         | LLG        | AC     | 0        | 4720.9            | 2980.6         | +       | forward      | 2935.1         | +       | forward     
  671         | LL         | AB     | 0        | 4608.1            | 3026.1         | +       | forward      | 3059.3         | +       | forward     
  671         | LL         | BC     | 0        | 4370.7            | 2718.3         | +       | forward      | 2702.3         | +       | forward     
  671         | LL         | AC     | 0        | 4463.2            | 2851.9         | +       | forward      | 2863.4         | +       | forward     
  671         | LG         | A      | 0        | 2798.8            | 2197.4         | +       | forward      | 2182.5         | +       | forward     
  671         | LG         | B      | 0        | 2804.8            | 2163.9         | +       | forward      | 2115.6         | +       | forward     
  671         | LG         | C      | 0        | 2730.7            | 2161.6         | +       | forward      | 2086.8         | +       | forward     
  671         | LG         | A      | 3        | 725.3             | 683.7          | +       | forward      | 607.5          | +       | forward     
  671         | LG         | B      | 3        | 758.7             | 587.1          | +       | forward      | 378.4          | +       | forward     
  671         | LG         | C      | 3        | 709.8             | 687.9          | +       | forward      | 525.7          | +       | forward     
  692         | LLL        | ABC    | 0        | 5563.7            | 3412.3         | +       | forward      | 3391.0         | +       | forward     
  692         | LLG        | AB     | 0        | 4963.6            | 3202.6         | +       | forward      | 3175.0         | +       | forward     
  692         | LLG        | BC     | 0        | 4650.5            | 2918.2         | +       | forward      | 2857.3         | +       | forward     
  692         | LLG        | AC     | 0        | 4720.9            | 2980.6         | +       | forward      | 2935.1         | +       | forward     
  692         | LL         | AB     | 0        | 4608.1            | 3026.1         | +       | forward      | 3059.3         | +       | forward     
  692         | LL         | BC     | 0        | 4370.7            | 2718.3         | +       | forward      | 2702.3         | +       | forward     
  692         | LL         | AC     | 0        | 4463.2            | 2851.9         | +       | forward      | 2863.4         | +       | forward     
  692         | LG         | A      | 0        | 2798.8            | 2197.4         | +       | forward      | 2182.5         | +       | forward     
  692         | LG         | B      | 0        | 2804.8            | 2163.9         | +       | forward      | 2115.6         | +       | forward     
  692         | LG         | C      | 0        | 2730.7            | 2161.6         | +       | forward      | 2086.8         | +       | forward     
  692         | LG         | A      | 3        | 725.3             | 683.7          | +       | forward      | 607.5          | +       | forward     
  692         | LG         | B      | 3        | 758.7             | 587.1          | +       | forward      | 378.4          | +       | forward     
  692         | LG         | C      | 3        | 709.8             | 687.9          | +       | forward      | 525.7          | +       | forward     
  675         | LLL        | ABC    | 0        | 5022.1            | 3090.3         | +       | forward      | 3049.6         | +       | forward     
  675         | LLG        | AB     | 0        | 4519.6            | 2922.6         | +       | forward      | 2888.7         | +       | forward     
  675         | LLG        | BC     | 0        | 4286.0            | 2702.0         | +       | forward      | 2624.9         | +       | forward     
  675         | LLG        | AC     | 0        | 4262.5            | 2712.5         | +       | forward      | 2643.7         | +       | forward     
  675         | LL         | AB     | 0        | 4188.2            | 2755.2         | +       | forward      | 2785.9         | +       | forward     
  675         | LL         | BC     | 0        | 4003.5            | 2494.5         | +       | forward      | 2482.8         | +       | forward     
  675         | LL         | AC     | 0        | 4015.8            | 2587.9         | +       | forward      | 2590.9         | +       | forward     
  675         | LG         | A      | 0        | 2568.9            | 2025.7         | +       | forward      | 2003.2         | +       | forward     
  675         | LG         | B      | 0        | 2599.3            | 2011.5         | +       | forward      | 1945.3         | +       | forward     
  675         | LG         | C      | 0        | 2510.5            | 2001.1         | +       | forward      | 1914.2         | +       | forward     
  675         | LG         | A      | 3        | 701.3             | 667.6          | +       | forward      | 591.0          | +       | forward     
  675         | LG         | B      | 3        | 740.3             | 576.6          | +       | forward      | 367.7          | +       | forward     
  675         | LG         | C      | 3        | 689.2             | 673.9          | +       | forward      | 510.6          | +       | forward     
  680         | LLL        | ABC    | 0        | 4459.9            | 2788.8         | +       | forward      | 2756.7         | +       | forward     
  680         | LLG        | AB     | 0        | 3948.6            | 2585.7         | +       | forward      | 2545.1         | +       | forward     
  680         | LLG        | BC     | 0        | 3648.2            | 2308.3         | +       | forward      | 2224.3         | +       | forward     
  680         | LLG        | AC     | 0        | 3713.8            | 2438.8         | +       | forward      | 2423.5         | +       | forward     
  680         | LL         | AB     | 0        | 3754.9            | 2506.0         | +       | forward      | 2517.1         | +       | forward     
  680         | LL         | BC     | 0        | 3474.9            | 2192.6         | +       | forward      | 2181.2         | +       | forward     
  680         | LL         | AC     | 0        | 3575.5            | 2332.2         | +       | forward      | 2334.2         | +       | forward     
  680         | LG         | A      | 0        | 2155.6            | 1753.3         | +       | forward      | 1728.5         | +       | forward     
  680         | LG         | B      | 0        | 2175.1            | 1717.9         | +       | forward      | 1653.3         | +       | forward     
  680         | LG         | C      | 0        | 2103.1            | 1730.3         | +       | forward      | 1640.8         | +       | forward     
  680         | LG         | A      | 3        | 700.2             | 677.9          | +       | forward      | 601.7          | +       | forward     
  680         | LG         | B      | 3        | 731.4             | 580.1          | +       | forward      | 373.4          | +       | forward     
  680         | LG         | C      | 3        | 685.1             | 683.0          | +       | forward      | 519.2          | +       | forward     
  684         | LLG        | AC     | 0        | 4106.8            | 2669.2         | +       | forward      | 2650.9         | +       | forward     
  684         | LL         | AC     | 0        | 3927.3            | 2543.4         | +       | forward      | 2542.6         | +       | forward     
  684         | LG         | A      | 0        | 2511.9            | 1994.1         | +       | forward      | 1971.7         | +       | forward     
  684         | LG         | C      | 0        | 2449.0            | 1964.1         | +       | forward      | 1877.7         | +       | forward     
  684         | LG         | A      | 3        | 705.4             | 672.3          | +       | forward      | 595.8          | +       | forward     
  684         | LG         | C      | 3        | 689.5             | 677.3          | +       | forward      | 514.0          | +       | forward     
  652         | LG         | A      | 0        | 2238.9            | 1794.6         | +       | forward      | 1761.0         | +       | forward     
  652         | LG         | A      | 3        | 668.3             | 645.3          | +       | forward      | 568.2          | +       | forward     
  611         | LG         | C      | 0        | 2235.8            | 1814.2         | +       | forward      | 1718.4         | +       | forward     
...